@<TRIPOS>MOLECULE
aerobactin.pdb
 72 71 0 0 0
SMALL
GASTEIGER

@<TRIPOS>ATOM
      1 C           2.7920    3.2050    5.3900 C.3     1  UNK1        0.0645
      2 N           1.6070    1.2810    4.5090 N.am    1  UNK1       -0.0023
      3 O           2.1610    2.9210    3.1250 O.2     1  UNK1       -0.2164
      4 C           2.1610    2.4540    4.2560 C.2     1  UNK1        0.4112
      5 N          -1.9640   -1.1760    1.7860 N.am    1  UNK1       -0.3073
      6 O          -4.7920   -1.4740    3.9420 O.co2   1  UNK1       -0.5479
      7 C           0.4010    1.1640    5.3910 C.3     1  UNK1        0.1800
      8 N           2.1860   -0.4880   -2.9090 N.am    1  UNK1       -0.3073
      9 O          -4.4920   -0.3310    2.1480 O.co2   1  UNK1       -0.5479
     10 C          -0.3220   -0.1530    5.4060 C.3     1  UNK1        0.0094
     11 N           3.7400    3.2580    0.0150 N.am    1  UNK1       -0.0023
     12 O          -2.1000   -2.8110    0.2140 O.2     0  UNK0       -0.2757
     13 C          -1.2320   -0.2090    4.1760 C.3     1  UNK1       -0.0452
     14 O           0.1580   -1.3890   -3.3940 O.2     0  UNK0       -0.2757
     15 C          -1.8230   -1.6800    4.0680 C.3     1  UNK1       -0.0290
     16 O           4.4510    2.4350    1.9750 O.2     1  UNK1       -0.2164
     17 C          -2.6710   -1.8460    2.8440 C.3     1  UNK1        0.0626
     18 O           2.7050    2.4690    0.0510 O.3     1  UNK1       -0.1395
     19 C          -4.0620   -1.1730    2.9630 C.2     1  UNK1        0.0619
     20 O           2.8770   -1.7970   -5.1450 O.co2   1  UNK1       -0.5479
     21 C          -1.7120   -1.7010    0.5760 C.2     0  UNK0        0.2166
     22 O           2.6480   -0.0140   -6.4470 O.co2   1  UNK1       -0.5479
     23 C          -0.8360   -0.7710   -0.3320 C.3     0  UNK0        0.0585
     24 O           1.0950   -0.9080    2.0630 O.co2   0  UNK0       -0.5468
     25 C           0.6920   -1.1500   -0.1750 C.3     0  UNK0        0.1213
     26 O           1.2160   -2.9250    1.3090 O.co2   0  UNK0       -0.5468
     27 C           1.1620   -2.0650   -1.3480 C.3     0  UNK0        0.0585
     28 O           1.3720    0.0470   -0.1880 O.3     0  UNK0       -0.3818
     29 C           1.1170   -1.2610   -2.6790 C.2     0  UNK0        0.2166
     30 O           2.1320    0.2100    3.9920 O.3     1  UNK1       -0.1395
     31 C           2.3280    0.3310   -4.0940 C.3     1  UNK1        0.0626
     32 C           3.3960    1.3370   -3.8290 C.3     1  UNK1       -0.0290
     33 C           3.0750    2.1730   -2.5840 C.3     1  UNK1       -0.0452
     34 C           4.1990    3.1380   -2.3820 C.3     1  UNK1        0.0094
     35 C           3.9850    4.0010   -1.2050 C.3     1  UNK1        0.1800
     36 C           4.5080    3.3440    1.1390 C.2     1  UNK1        0.4112
     37 C           5.3290    4.5820    1.4190 C.3     1  UNK1        0.0645
     38 C           2.6310   -0.5450   -5.3120 C.2     1  UNK1        0.0619
     39 C           1.0240   -1.7000    1.1700 C.2     0  UNK0        0.0741
     40 H           2.6918    2.6388    6.2923 H       1  UNK1        0.0373
     41 H           2.3050    4.1506    5.5064 H       1  UNK1        0.0373
     42 H           3.8296    3.3616    5.1806 H       1  UNK1        0.0373
     43 H          -1.6402   -0.2631    1.9622 H       1  UNK1        0.1493
     44 H          -0.2988    1.9103    5.0777 H       1  UNK1        0.1055
     45 H           0.7783    1.2793    6.3856 H       1  UNK1        0.1055
     46 H           2.9091   -0.4762   -2.2410 H       1  UNK1        0.1493
     47 H          -0.9099   -0.2340    6.2963 H       1  UNK1        0.0327
     48 H           0.3788   -0.9613    5.3862 H       1  UNK1        0.0327
     49 H          -0.6679    0.0210    3.2964 H       1  UNK1        0.0268
     50 H          -2.0246    0.5039    4.2677 H       1  UNK1        0.0268
     51 H          -2.4200   -1.8786    4.9334 H       1  UNK1        0.0287
     52 H          -1.0040   -2.3654    4.0028 H       1  UNK1        0.0287
     53 H          -2.8364   -2.8905    2.6807 H       1  UNK1        0.0560
     54 H           2.6584    2.0362    0.9178 H       1  UNK1        0.2985
     55 H          -0.9806    0.2482   -0.0401 H       0  UNK0        0.0390
     56 H          -1.1278   -0.8995   -1.3534 H       0  UNK0        0.0390
     57 H           0.5139   -2.9133   -1.4210 H       0  UNK0        0.0390
     58 H           2.1624   -2.3970   -1.1641 H       0  UNK0        0.0390
     59 H           1.2214    0.4952   -1.0349 H       0  UNK0        0.2107
     60 H           1.6188   -0.5662    4.2658 H       1  UNK1        0.2985
     61 H           1.4181    0.8476   -4.3177 H       1  UNK1        0.0560
     62 H           3.4797    1.9878   -4.6742 H       1  UNK1        0.0287
     63 H           4.3160    0.8174   -3.6598 H       1  UNK1        0.0287
     64 H           2.9847    1.5348   -1.7299 H       1  UNK1        0.0268
     65 H           2.1505    2.6962   -2.7121 H       1  UNK1        0.0268
     66 H           4.2840    3.7555   -3.2517 H       1  UNK1        0.0327
     67 H           5.0927    2.5730   -2.2180 H       1  UNK1        0.0327
     68 H           4.8563    4.6060   -1.0648 H       1  UNK1        0.1055
     69 H           3.1121    4.5889   -1.3982 H       1  UNK1        0.1055
     70 H           5.2585    5.2522    0.5879 H       1  UNK1        0.0373
     71 H           6.3518    4.3054    1.5684 H       1  UNK1        0.0373
     72 H           4.9578    5.0646    2.2989 H       1  UNK1        0.0373
@<TRIPOS>BOND
     1     1     4    1
     2     2     7    1
     3     2    30    1
     4     2     4   am
     5     3     4    2
     6     5    21   am
     7     5    17    1
     8     6    19   ar
     9     7    10    1
    10     8    31    1
    11     8    29   am
    12     9    19   ar
    13    10    13    1
    14    11    18    1
    15    11    36   am
    16    11    35    1
    17    12    21    2
    18    13    15    1
    19    14    29    2
    20    16    36    2
    21    17    15    1
    22    17    19    1
    23    20    38   ar
    24    21    23    1
    25    22    38   ar
    26    23    25    1
    27    24    39   ar
    28    25    27    1
    29    25    28    1
    30    25    39    1
    31    26    39   ar
    32    27    29    1
    33    31    32    1
    34    31    38    1
    35    32    33    1
    36    33    34    1
    37    34    35    1
    38    36    37    1
    39     1    40    1
    40     1    41    1
    41     1    42    1
    42     5    43    1
    43     7    44    1
    44     7    45    1
    45     8    46    1
    46    10    47    1
    47    10    48    1
    48    13    49    1
    49    13    50    1
    50    15    51    1
    51    15    52    1
    52    17    53    1
    53    18    54    1
    54    23    55    1
    55    23    56    1
    56    27    57    1
    57    27    58    1
    58    28    59    1
    59    30    60    1
    60    31    61    1
    61    32    62    1
    62    32    63    1
    63    33    64    1
    64    33    65    1
    65    34    66    1
    66    34    67    1
    67    35    68    1
    68    35    69    1
    69    37    70    1
    70    37    71    1
    71    37    72    1
