# created with PyMOL 3.1.4.1
@<TRIPOS>MOLECULE
aerobactin_fe
73 71 2                 
SMALL
USER_CHARGES
@<TRIPOS>ATOM
1	  C1	-2.275	4.884	0.174	C.3	1	ACN1	0.000	
2	  N1	-2.689	2.523	0.548	N.3	1	ACN1	0.000	
3	  O1	-0.852	3.128	-0.534	O.3	1	ACN1	0.000	
4	  C2	-1.887	3.442	0.038	C.3	1	ACN1	0.000	
5	  N2	-3.012	-2.430	-0.702	N.3	1	ACN1	0.000	
6	  O2	-6.327	-2.903	-1.937	O.3	1	ACN1	0.000	
7	  C3	-4.069	2.307	0.006	C.3	1	ACN1	0.000	
8	  N3	3.154	-2.411	0.606	N.3	1	ACN1	0.000	
9	  O3	-4.421	-2.981	-2.926	O.3	1	ACN1	0.000	
10	  C4	-4.805	1.076	0.454	C.3	1	ACN1	0.000	
11	  N4	2.584	2.459	-0.372	N.3	1	ACN1	0.000	
12	  O4	-2.238	-4.438	0.027	O.3	1	ACN1	0.000	
13	  C5	-4.307	-0.105	-0.383	C.3	1	ACN1	0.000	
14	  O5	2.241	-4.317	-0.227	O.3	1	ACN1	0.000	
15	  C6	-4.913	-1.437	0.236	C.3	1	ACN1	0.000	
16	  O6	1.162	3.360	1.108	O.3	1	ACN1	0.000	
17	  C7	-4.415	-2.655	-0.479	C.3	1	ACN1	0.000	
18	  O7	1.803	1.425	-0.504	O.3	1	ACN1	0.000	
19	  C8	-5.072	-2.866	-1.867	C.3	1	ACN1	0.000	
20	  O8	4.987	-4.142	1.520	O.3	1	ACN1	0.000	
21	  C9	-2.037	-3.309	-0.419	C.3	1	ACN1	0.000	
22	  O9	6.381	-3.802	-0.173	O.3	1	ACN1	0.000	
23	 C10	-0.599	-2.744	-0.681	C.3	1	ACN1	0.000	
24	 O10	-1.550	-0.523	1.229	O.3	1	ACN1	0.000	
25	 C11	-0.017	-2.118	0.651	C.3	1	ACN1	0.000	
26	 O11	-1.400	-2.200	2.576	O.3	1	ACN1	0.000	
27	 C12	0.942	-3.120	1.364	C.3	1	ACN1	0.000	
28	 O12	0.663	-0.987	0.260	O.3	1	ACN1	0.000	
29	 C13	2.203	-3.345	0.481	C.3	1	ACN1	0.000	
30	 O13	-2.272	1.806	1.549	O.3	1	ACN1	0.000	
31	 C14	4.400	-2.449	-0.130	C.3	1	ACN1	0.000	
32	 C15	5.011	-1.091	-0.066	C.3	1	ACN1	0.000	
33	 C16	4.052	-0.024	-0.607	C.3	1	ACN1	0.000	
34	 C17	4.733	1.302	-0.489	C.3	1	ACN1	0.000	
35	 C18	3.893	2.405	-0.992	C.3	1	ACN1	0.000	
36	 C19	2.104	3.529	0.325	C.3	1	ACN1	0.000	
37	 C20	2.633	4.920	0.063	C.3	1	ACN1	0.000	
38	 C21	5.317	-3.537	0.433	C.3	1	ACN1	0.000	
39	 C22	-1.072	-1.570	1.551	C.3	1	ACN1	0.000	
40	  H1	-2.714	5.068	1.177	 H	1	ACN1	0.000	
41	  H2	-3.025	5.135	-0.603	 H	1	ACN1	0.000	
42	  H3	-1.384	5.533	0.042	 H	1	ACN1	0.000	
43	  H4	-2.819	-1.676	-1.306	 H	1	ACN1	0.000	
44	  H5	-4.074	2.391	-1.104	 H	1	ACN1	0.000	
45	  H6	-4.695	3.160	0.375	 H	1	ACN1	0.000	
46	  H7	3.340	-2.234	1.565	 H	1	ACN1	0.000	
47	  H8	-5.901	1.190	0.286	 H	1	ACN1	0.000	
48	  H9	-4.654	0.886	1.538	 H	1	ACN1	0.000	
49	 H10	-3.207	-0.073	-0.367	 H	1	ACN1	0.000	
50	 H11	-4.645	-0.018	-1.437	 H	1	ACN1	0.000	
51	 H12	-6.024	-1.399	0.235	 H	1	ACN1	0.000	
52	 H13	-4.567	-1.491	1.294	 H	1	ACN1	0.000	
53	 H14	-4.610	-3.571	0.125	 H	1	ACN1	0.000	
54	 H15	1.920	1.241	-1.456	 H	1	ACN1	0.000	
55	 H16	-0.717	-1.995	-1.484	 H	1	ACN1	0.000	
56	 H17	0.009	-3.581	-1.063	 H	1	ACN1	0.000	
57	 H18	0.414	-4.086	1.485	 H	1	ACN1	0.000	
58	 H19	1.259	-2.750	2.356	 H	1	ACN1	0.000	
59	 H20	1.236	-1.366	-0.434	 H	1	ACN1	0.000	
60	 H21	-2.980	1.913	2.208	 H	1	ACN1	0.000	
61	 H22	4.192	-2.719	-1.193	 H	1	ACN1	0.000	
62	 H23	5.951	-1.079	-0.667	 H	1	ACN1	0.000	
63	 H24	5.294	-0.844	0.985	 H	1	ACN1	0.000	
64	 H25	3.245	-0.101	0.140	 H	1	ACN1	0.000	
65	 H26	3.707	-0.271	-1.634	 H	1	ACN1	0.000	
66	 H27	5.695	1.283	-1.057	 H	1	ACN1	0.000	
67	 H28	4.989	1.496	0.580	 H	1	ACN1	0.000	
68	 H29	4.471	3.352	-0.858	 H	1	ACN1	0.000	
69	 H30	3.758	2.285	-2.096	 H	1	ACN1	0.000	
70	 H31	2.703	5.099	-1.031	 H	1	ACN1	0.000	
71	 H32	3.627	5.049	0.534	 H	1	ACN1	0.000	
72	 H33	1.934	5.667	0.498	 H	1	ACN1	0.000	
73	FE3P	0.009	1.367	0.850	Fe	2	FE3P1111	0.000	
@<TRIPOS>BOND
1 1 4 1
2 1 40 1
3 1 41 1
4 1 42 1
5 2 4 1
6 2 7 1
7 2 30 1
8 3 4 1
9 5 17 1
10 5 21 1
11 5 43 1
12 6 19 1
13 7 10 1
14 7 44 1
15 7 45 1
16 8 29 1
17 8 31 1
18 8 46 1
19 9 19 1
20 10 13 1
21 10 47 1
22 10 48 1
23 11 18 1
24 11 35 1
25 11 36 1
26 12 21 1
27 13 15 1
28 13 49 1
29 13 50 1
30 14 29 1
31 15 17 1
32 15 51 1
33 15 52 1
34 16 36 1
35 17 19 1
36 17 53 1
37 18 54 1
38 20 38 1
39 21 23 1
40 22 38 1
41 23 25 1
42 23 55 1
43 23 56 1
44 24 39 1
45 25 27 1
46 25 28 1
47 25 39 1
48 26 39 1
49 27 29 1
50 27 57 1
51 27 58 1
52 28 59 1
53 30 60 1
54 31 32 1
55 31 38 1
56 31 61 1
57 32 33 1
58 32 62 1
59 32 63 1
60 33 34 1
61 33 64 1
62 33 65 1
63 34 35 1
64 34 66 1
65 34 67 1
66 35 68 1
67 35 69 1
68 36 37 1
69 37 70 1
70 37 71 1
71 37 72 1
@<TRIPOS>SUBSTRUCTURE
1	ACN1	1	GROUP	1 H	ACN
2	FE3P1111	73	GROUP	1 H	FE3P
